

ELEMENTS
N AR HE H O C
END

SPECIES
N2 H O2 O OH
H2 H2O HO2 H2O2 CO
CO2 HCO CH3 CH4 CH2O
HOCH2O HOCHO CH3O CH3OH CH2
CH2GSG CH3O2 CH3O2H C2H6 C2H5
C2H4 C2H5O2 C2H5O2H C2H3 CH3CHO
C2H5O C2H3O1X2 CH3CO CH2CHO CH2CO
HCCO C2H2 C2H3CHO C2H3CO NXC3H7
C3H5XA C3H6 NXC3H7O2 C3H5O C3H6OOH1X2
PXC4H9 SXC4H9 PXC4H9O2 C4H8X1 C4H8X2
C4H71X3 C4H71X4 C4H6 C4H7O C4H8O1X3
C4H8OOH1X3 C4H8OOH1X3O2 NC4KET13 C2H5COCH2 C5H11X1
C5H10X1 C5H91X3 C5H91X5 C5H11O2X1 C5H10OOH1X4
C5H10O1X4 C6H13X1 C6H13O2X1 C6H12X1 C6H111X3
C6H111X6 C6H12OOH1X4 C6H12O1X4 NXC3H7COCH2 C12H25X1
NXC12H26 C12H25X2 C12H25X3 C12H25X4 C12H25X5
C12H25X6 C10H21X1 C9H19X1 C8H17X1 C7H15X1
C10H21X5 C9H19X5 C8H17X4 C7H15X3 C10H20X1
C9H18X1 C7H14X1 C8H16X1 C12H23 C10H19
C9H17 C8H15 C7H131X6 C7H131X7 NXC5H11CHO
C12H25O2X1 C12H25O2X2 C12H25O2X3 C12H25O2X4 C12H25O2X5
C12H25O2X6 C9H19O2X5 C8H17O2X4 C7H15O2X3 C12OOH1X4
C12OOH2X4 C12OOH3X5 C12OOH3X6 C12OOH4X2 C12OOH5X3
C12OOH5X7 C12OOH6X3 C12OOH6X8 C9OOH5X3 C8OOH4X2
C7H14OOH3X5 C12O2X4 C12O3X5 C12O5X7 C9O3X5
C8O2X4 C12O1X4 C12O3X6 C7H14O3X5 NXC7H15CHO
C12OOH3X5O2 C12OOH3X6O2 C12OOH5X7O2 C12KET3X5 C12KET5X7
NXC7H15CO NXC4H9COCH2 NXC5H11CO C5H11COCH2 C12POOH36X4
C12H233X6OOH
AR
O3 N NO NO2 N2O HNO HONO C12H25O
END

REACTIONS
H+O2<=>O+OH 3.547e+15 -0.406 16599.90
REV/ 1.027e+13 -0.015 -132.89/ 
O+H2<=>H+OH 5.080e+04 2.670 6292.07
REV/ 2.637e+04 2.651 4880.02/ 
OH+H2<=>H+H2O 2.160e+08 1.510 3429.97
REV/ 2.290e+09 1.404 18320.03/ 
O+H2O<=>2OH 2.970e+06 2.020 13400.10
REV/ 1.454e+05 2.107 -2903.92/ 
H2+M<=>2H+M 4.577e+19 -1.400 104400.10
H2/ 2.50/ H2O/ 12.00/ CO/ 1.90/ CO2/ 3.80/ 
REV/ 1.145e+20 -1.676 820.03/ 
O2+M<=>2O+M 4.420e+17 -0.634 118900.10
H2/ 2.50/ H2O/ 12.00/ CO/ 1.90/ CO2/ 3.80/ CH4/ 2.00/ 
C2H6/ 3.00/ 
REV/ 6.165e+15 -0.500 0.00/ 
OH+M<=>O+H+M 9.780e+17 -0.743 102099.90
H2/ 2.50/ H2O/ 12.00/ CO/ 1.50/ CO2/ 2.00/ CH4/ 2.00/ 
C2H6/ 3.00/ 
REV/ 4.714e+18 -1.000 0.00/ 
H2O+M<=>H+OH+M 1.907e+23 -1.830 118500.00
H2/ 0.73/ H2O/ 12.00/ CH4/ 2.00/ C2H6/ 3.00/ 
REV/ 4.500e+22 -2.000 0.00/ 
H+O2(+M)<=>HO2(+M) 1.475e+12 0.600 0.00
H2/ 1.30/ H2O/ 14.00/ CO/ 1.90/ CO2/ 3.80/ CH4/ 2.00/ 
C2H6/ 3.00/ 
LOW/ 3.482e+16 -0.411 -1114.96/ 
TROE/ 0.5 1e-30 1e+30 1e+10/ 
HO2+H<=>H2+O2 1.660e+13 0.000 822.90
REV/ 3.166e+12 0.348 55510.04/ 
HO2+H<=>2OH 7.079e+13 0.000 294.93
REV/ 2.028e+10 0.720 36840.11/ 
HO2+O<=>OH+O2 3.250e+13 0.000 0.00
REV/ 3.217e+12 0.329 53280.11/ 
HO2+OH<=>H2O+O2 1.973e+10 0.962 -328.39
REV/ 3.989e+10 1.204 69250.00/ 
H2O2+O2<=>2HO2 1.136e+16 -0.347 49729.92
REV/ 1.030e+14 0.000 11039.91/ 
DUPLICATE
H2O2+O2<=>2HO2 2.141e+13 -0.347 37280.11
REV/ 1.940e+11 0.000 -1408.94/ 
DUPLICATE
H2O2(+M)<=>2OH(+M) 2.951e+14 0.000 48429.97
H2/ 2.50/ H2O/ 12.00/ CO/ 1.90/ CO2/ 3.80/ CH4/ 2.00/ 
C2H6/ 3.00/ 
LOW/ 1.202e+17 0.000 45500.00/ 
TROE/ 0.5 1e-30 1e+30 1e+10/ 
H2O2+H<=>H2O+OH 2.410e+13 0.000 3969.89
REV/ 1.265e+08 1.310 71409.89/ 
H2O2+H<=>H2+HO2 2.150e+10 1.000 6000.00
REV/ 3.716e+07 1.695 22000.00/ 
H2O2+O<=>OH+HO2 9.550e+06 2.000 3969.89
REV/ 8.568e+03 2.676 18559.99/ 
H2O2+OH<=>H2O+HO2 2.000e+12 0.000 427.10
REV/ 3.665e+10 0.589 31320.03/ 
DUPLICATE
H2O2+OH<=>H2O+HO2 1.700e+18 0.000 29409.89
REV/ 3.115e+16 0.589 60299.95/ 
DUPLICATE
CO+O(+M)<=>CO2(+M) 1.800e+10 0.000 2384.08
O2/ 6.00/ H2/ 2.00/ H2O/ 6.00/ CO/ 1.50/ CO2/ 3.50/ 
CH4/ 2.00/ 
C2H6/ 3.00/ 
LOW/ 1.350e+24 -2.788 4190.97/ 
TROE/ 1 1.00 10000000.00 10000000.00/ 
CO+O2<=>CO2+O 1.050e+12 0.000 42539.91
REV/ 8.035e+15 -0.800 51229.92/ 
CO+OH<=>CO2+H 2.230e+05 1.890 -1157.98
REV/ 5.896e+11 0.699 24260.04/ 
CO+HO2<=>CO2+OH 3.010e+13 0.000 23000.00
REV/ 2.280e+16 -0.470 84969.89/ 
HCO+M<=>H+CO+M 4.750e+11 0.660 14869.98
H2/ 2.00/ H2O/ 12.00/ CO/ 1.50/ CO2/ 2.00/ CH4/ 2.00/ C2H6/ 3.00/ 
REV/ 3.582e+10 1.041 -457.22/ 
HCO+O2<=>CO+HO2 7.580e+12 0.000 409.89
REV/ 1.198e+12 0.309 33950.05/ 
HCO+H<=>CO+H2 7.340e+13 0.000 0.00
REV/ 2.212e+12 0.656 88229.92/ 
HCO+O<=>CO+OH 3.020e+13 0.000 0.00
REV/ 4.725e+11 0.638 86820.03/ 
HCO+O<=>CO2+H 3.000e+13 0.000 0.00
REV/ 1.241e+18 -0.553 112200.05/ 
HCO+OH<=>CO+H2O 1.020e+14 0.000 0.00
REV/ 3.259e+13 0.551 103099.90/ 
HCO+CH3<=>CH4+CO 2.650e+13 0.000 0.00
REV/ 7.286e+14 0.211 89770.08/ 
HCO+HO2<=>CH2O+O2 2.499e+14 -0.061 13919.93
REV/ 8.070e+15 0.000 53419.93/ 
HCO+HO2<=>CO2+H+OH 3.000e+13 0.000 0.00
REV/ 0.000e+00 0.000 0.00/ 
CH2O+CO<=>2HCO 9.186e+13 0.370 73039.91
REV/ 1.800e+13 0.000 0.00/ 
2HCO<=>H2+2CO 3.000e+12 0.000 0.00
REV/ 0.000e+00 0.000 0.00/ 
HCO+H(+M)<=>CH2O(+M) 1.090e+12 0.480 -260.04
H2/ 2.00/ H2O/ 6.00/ CO/ 1.50/ CO2/ 2.00/ CH4/ 2.00/ 
C2H6/ 3.00/ 
LOW/ 1.350e+24 -2.570 1424.95/ 
TROE/ 0.7824 271 2755 6570/ 
CO+H2(+M)<=>CH2O(+M) 4.300e+07 1.500 79599.90
H2/ 2.00/ H2O/ 6.00/ CO/ 1.50/ CO2/ 2.00/ CH4/ 2.00/ 
C2H6/ 3.00/ 
LOW/ 5.070e+27 -3.420 84349.90/ 
TROE/ 0.932 197 1540 10300/ 
CH2O+OH<=>HCO+H2O 7.820e+07 1.630 -1054.97
REV/ 4.896e+06 1.811 29030.11/ 
CH2O+H<=>HCO+H2 5.740e+07 1.900 2739.96
REV/ 3.390e+05 2.187 17929.97/ 
CH2O+O<=>HCO+OH 6.260e+09 1.150 2260.04
REV/ 1.919e+07 1.418 16039.91/ 
CH2O+CH3<=>HCO+CH4 3.830e+01 3.360 4311.90
REV/ 2.063e+02 3.201 21039.91/ 
CH2O+HO2<=>HCO+H2O2 7.100e-03 4.517 6580.07
REV/ 2.426e-02 4.108 5768.88/ 
HOCH2O<=>CH2O+OH 2.056e+21 -2.336 25729.92
REV/ 4.500e+15 -1.100 0.00/ 
HOCH2O<=>HOCHO+H 1.000e+14 0.000 14900.10
REV/ 1.123e+15 -0.295 11500.00/ 
HOCHO<=>CO+H2O 2.450e+12 0.000 60469.89
REV/ 2.255e+03 2.093 52890.06/ 
HOCHO<=>CO2+H2 2.950e+09 0.000 48520.08
REV/ 6.772e+05 1.008 51469.89/ 
HOCHO<=>HCO+OH 3.471e+22 -1.542 110700.05
REV/ 1.000e+14 0.000 0.00/ 
HOCHO+OH<=>H2O+CO2+H 2.620e+06 2.060 916.11
REV/ 0.000e+00 0.000 0.00/ 
HOCHO+OH<=>H2O+CO+OH 1.850e+07 1.510 -962.00
REV/ 0.000e+00 0.000 0.00/ 
HOCHO+H=>H2+CO2+H 4.240e+06 2.100 4868.07
HOCHO+H<=>H2+CO+OH 6.030e+13 -0.350 2988.05
REV/ 0.000e+00 0.000 0.00/ 
HOCHO+CH3<=>CH4+CO+OH 3.900e-07 5.800 2200.05
REV/ 0.000e+00 0.000 0.00/ 
HOCHO+HO2=>H2O2+CO+OH 1.000e+12 0.000 11919.93
HOCHO+O=>CO+2OH 1.770e+18 -1.900 2974.90
CH3O(+M)<=>CH2O+H(+M) 6.800e+13 0.000 26169.93
H2/ 2.00/ H2O/ 6.00/ CO/ 1.50/ CO2/ 2.00/ CH4/ 2.00/ C2H6/ 3.00/ 
LOW/ 1.867e+25 -3.000 24309.99/ 
TROE/ 0.9 2500 1300 1e+99/ 
CH3O+O2<=>CH2O+HO2 4.380e-19 9.500 -5500.96
REV/ 1.416e-20 9.816 21080.07/ 
CH2O+CH3O<=>CH3OH+HCO 6.620e+11 0.000 2293.98
REV/ 8.393e+10 0.074 17710.09/ 
CH4+CH3O<=>CH3+CH3OH 6.119e+02 2.867 8248.09
REV/ 1.440e+01 3.100 6934.99/ 
CH3O+CH3<=>CH2O+CH4 1.200e+13 0.000 0.00
REV/ 6.749e+13 0.218 82809.99/ 
CH3O+H<=>CH2O+H2 2.000e+13 0.000 0.00
REV/ 1.233e+11 0.664 81270.08/ 
CH3O+HO2<=>CH2O+H2O2 3.010e+11 0.000 0.00
REV/ 1.074e+12 -0.031 65270.08/ 
CH3OH(+M)<=>CH3+OH(+M) 1.900e+16 0.000 91729.92
LOW/ 2.950e+44 -7.350 95460.09/ 
TROE/ 0.414 279 5459 1e+10/ 
CH3OH+H<=>CH3O+H2 3.600e+12 0.000 6094.89
REV/ 1.677e+11 0.212 5868.07/ 
CH3OH+OH<=>CH3O+H2O 5.130e+05 2.130 2450.05
REV/ 2.534e+05 2.237 17119.98/ 
CH3OH+CH2O<=>2CH3O 7.981e+12 0.452 81489.96
REV/ 6.030e+13 0.000 0.00/ 
CH3+H(+M)<=>CH4(+M) 1.270e+16 -0.600 382.89
H2/ 2.00/ H2O/ 6.00/ CO/ 1.50/ CO2/ 2.00/ CH4/ 2.00/ 
C2H6/ 3.00/ 
LOW/ 2.477e+33 -4.760 2444.07/ 
TROE/ 0.783 74 2940 6960/ 
CH4+H<=>CH3+H2 6.140e+05 2.500 9587.00
REV/ 6.730e+02 2.946 8047.08/ 
CH4+OH<=>CH3+H2O 5.830e+04 2.600 2190.01
REV/ 6.776e+02 2.940 15539.91/ 
CH4+O<=>CH3+OH 1.020e+09 1.500 8599.90
REV/ 5.804e+05 1.927 5647.94/ 
CH4+HO2<=>CH3+H2O2 1.130e+01 3.740 21010.04
REV/ 7.166e+00 3.491 3467.97/ 
CH4+CH2<=>2CH3 2.460e+06 2.000 8270.08
REV/ 1.736e+06 1.868 12979.92/ 
CH3+OH<=>CH2O+H2 8.000e+09 0.500 -1755.02
REV/ 1.066e+12 0.322 68210.09/ 
CH3+OH<=>CH2GSG+H2O 4.508e+17 -1.340 1417.07
REV/ 1.654e+16 -0.855 1038.96/ 
CH3+OH<=>CH3O+H 6.943e+07 1.343 11200.05
REV/ 1.500e+12 0.500 -109.94/ 
CH3+OH<=>CH2+H2O 5.600e+07 1.600 5419.93
REV/ 9.224e+05 2.072 14059.99/ 
CH3+HO2<=>CH3O+OH 1.000e+12 0.269 -687.62
REV/ 6.190e+12 0.147 24549.95/ 
CH3+HO2<=>CH4+O2 1.160e+05 2.230 -3021.99
REV/ 2.018e+07 2.132 53210.09/ 
CH3+O<=>CH2O+H 5.540e+13 0.050 -135.99
REV/ 3.830e+15 -0.147 68409.89/ 
CH3+O2<=>CH3O+O 7.546e+12 0.000 28320.03
REV/ 4.718e+14 -0.451 288.00/ 
CH3+O2<=>CH2O+OH 2.641e+00 3.283 8104.92
REV/ 5.285e-01 3.477 59919.93/ 
CH3+O2(+M)<=>CH3O2(+M) 7.812e+09 0.900 0.00
LOW/ 6.850e+24 -3.000 0.00/ 
TROE/ 0.6 1000 70 1700/ 
CH3O2+CH2O<=>CH3O2H+HCO 1.990e+12 0.000 11659.89
REV/ 1.323e+14 -0.853 9259.08/ 
CH4+CH3O2<=>CH3+CH3O2H 1.810e+11 0.000 18479.92
REV/ 2.233e+12 -0.694 -655.11/ 
CH3O2+CH3<=>2CH3O 5.080e+12 0.000 -1411.09
REV/ 1.967e+12 0.176 28070.03/ 
CH3O2+HO2<=>CH3O2H+O2 2.470e+11 0.000 -1570.03
REV/ 5.302e+14 -0.792 35520.08/ 
2CH3O2<=>CH2O+CH3OH+O2 3.110e+14 -1.610 -1050.91
REV/ 0.000e+00 0.000 0.00/ 
2CH3O2<=>O2+2CH3O 1.400e+16 -1.610 1859.94
REV/ 0.000e+00 0.000 0.00/ 
CH3O2+H<=>CH3O+OH 9.600e+13 0.000 0.00
REV/ 1.720e+09 1.019 40780.11/ 
CH3O2+O<=>CH3O+O2 3.600e+13 0.000 0.00
REV/ 2.229e+11 0.628 57520.08/ 
CH3O2+OH<=>CH3OH+O2 6.000e+13 0.000 0.00
REV/ 1.536e+13 0.434 59159.89/ 
CH3O2H<=>CH3O+OH 6.310e+14 0.000 42299.95
REV/ 2.514e+06 1.883 -2875.00/ 
CH2GSG+M<=>CH2+M 1.000e+13 0.000 0.00
REV/ 4.488e+12 -0.013 9020.08/ 
CH2GSG+CH4<=>2CH3 1.600e+13 0.000 -570.03
REV/ 5.067e+12 -0.145 13159.89/ 
CH2GSG+O2<=>CO+OH+H 7.000e+13 0.000 0.00
REV/ 0.000e+00 0.000 0.00/ 
CH2GSG+H2<=>CH3+H 7.000e+13 0.000 0.00
REV/ 2.022e+16 -0.591 15270.08/ 
CH2GSG+H<=>CH2+H 3.000e+13 0.000 0.00
REV/ 1.346e+13 -0.013 9020.08/ 
CH2GSG+O<=>CO+2H 3.000e+13 0.000 0.00
REV/ 0.000e+00 0.000 0.00/ 
CH2GSG+OH<=>CH2O+H 3.000e+13 0.000 0.00
REV/ 1.154e+18 -0.770 85229.92/ 
CH2GSG+CO2<=>CH2O+CO 3.000e+12 0.000 0.00
REV/ 4.366e+10 0.421 59809.99/ 
CH2+H(+M)<=>CH3(+M) 2.500e+16 -0.800 0.00
H2/ 2.00/ H2O/ 6.00/ CO/ 1.50/ CO2/ 2.00/ CH4/ 2.00/ 
C2H6/ 3.00/ 
LOW/ 3.200e+27 -3.140 1229.92/ 
TROE/ 0.68 78 1995 5590/ 
CH2+O2<=>CH2O+O 2.400e+12 0.000 1500.00
REV/ 5.955e+14 -0.365 60979.92/ 
CH2+O2<=>CO2+2H 5.800e+12 0.000 1500.00
REV/ 0.000e+00 0.000 0.00/ 
CH2+O2<=>CO+OH+H 5.000e+12 0.000 1500.00
REV/ 0.000e+00 0.000 0.00/ 
CH2+O<=>CO+2H 5.000e+13 0.000 0.00
REV/ 0.000e+00 0.000 0.00/ 
2CH3(+M)<=>C2H6(+M) 9.214e+16 -1.170 635.76
H2/ 2.00/ H2O/ 6.00/ CO/ 1.50/ CO2/ 2.00/ CH4/ 2.00/ 
C2H6/ 3.00/ 
LOW/ 1.135e+36 -5.246 1705.07/ 
TROE/ 0.405 1120 69.6 1e+10/ 
C2H5+H(+M)<=>C2H6(+M) 5.210e+17 -0.990 1580.07
H2/ 2.00/ H2O/ 6.00/ CO/ 1.50/ CO2/ 2.00/ CH4/ 2.00/ 
C2H6/ 3.00/ 
LOW/ 1.990e+41 -7.080 6684.99/ 
TROE/ 0.842 125 2219 6882/ 
C2H6+H<=>C2H5+H2 1.150e+08 1.900 7530.11
REV/ 1.062e+04 2.582 9760.04/ 
C2H6+O<=>C2H5+OH 3.550e+06 2.400 5830.07
REV/ 1.702e+02 3.063 6647.94/ 
C2H6+OH<=>C2H5+H2O 1.480e+07 1.900 950.05
REV/ 1.450e+04 2.476 18070.03/ 
C2H6+O2<=>C2H5+HO2 6.030e+13 0.000 51869.98
REV/ 2.921e+10 0.334 -592.97/ 
C2H6+CH3<=>C2H5+CH4 1.510e-07 6.000 6047.08
REV/ 1.273e-08 6.236 9816.92/ 
C2H6+HO2<=>C2H5+H2O2 3.460e+01 3.610 16919.93
REV/ 1.849e+00 3.597 3151.05/ 
C2H6+CH3O2<=>C2H5+CH3O2H 1.940e+01 3.640 17099.90
REV/ 2.017e+01 3.182 1733.99/ 
C2H6+CH3O<=>C2H5+CH3OH 2.410e+11 0.000 7090.11
REV/ 4.779e+08 0.469 9547.08/ 
CH2GSG+C2H6<=>CH3+C2H5 1.200e+14 0.000 0.00
REV/ 3.203e+12 0.091 17500.00/ 
C2H4+H(+M)<=>C2H5(+M) 1.081e+12 0.454 1821.94
H2/ 2.00/ H2O/ 6.00/ CO/ 1.50/ CO2/ 2.00/ CH4/ 2.00/ 
C2H6/ 3.00/ 
LOW/ 1.200e+42 -7.620 6969.89/ 
TROE/ 0.975 210 984 4374/ 
H2+CH3O2<=>H+CH3O2H 1.500e+14 0.000 26030.11
REV/ 1.688e+18 -1.140 8434.03/ 
H2+C2H5O2<=>H+C2H5O2H 1.500e+14 0.000 26030.11
REV/ 1.691e+18 -1.140 8438.10/ 
C2H5+C2H3<=>2C2H4 6.859e+11 0.110 -4299.95
REV/ 4.820e+14 0.000 71530.11/ 
CH3+C2H5<=>CH4+C2H4 1.180e+04 2.450 -2920.89
REV/ 2.390e+06 2.400 66690.01/ 
C2H5+H<=>2CH3 9.690e+13 0.000 219.89
REV/ 2.029e+09 1.028 10510.04/ 
C2H5+H<=>C2H4+H2 2.000e+12 0.000 0.00
REV/ 4.440e+11 0.396 68070.03/ 
C2H5+O<=>CH3CHO+H 1.100e+14 0.000 0.00
REV/ 1.033e+17 -0.500 77419.93/ 
C2H5+HO2<=>C2H5O+OH 1.100e+13 0.000 0.00
REV/ 9.680e+15 -0.723 27650.10/ 
CH3O2+C2H5<=>CH3O+C2H5O 8.000e+12 0.000 -1000.00
REV/ 4.404e+14 -0.425 30890.06/ 
C2H5O+O2<=>CH3CHO+HO2 4.280e+10 0.000 1097.04
REV/ 1.322e+08 0.615 34130.02/ 
C2H5O<=>CH3+CH2O 1.321e+20 -2.018 20750.00
REV/ 3.000e+11 0.000 6336.04/ 
C2H5O<=>CH3CHO+H 5.428e+15 -0.687 22229.92
REV/ 8.000e+12 0.000 6400.10/ 
C2H5O2<=>C2H5+O2 1.312e+62 -14.784 49179.97
REV/ 2.876e+56 -13.820 14619.98/ 
C2H5O2+CH2O<=>C2H5O2H+HCO 1.990e+12 0.000 11659.89
REV/ 1.325e+14 -0.853 9262.91/ 
CH4+C2H5O2<=>CH3+C2H5O2H 1.810e+11 0.000 18479.92
REV/ 2.237e+12 -0.694 -651.05/ 
C2H5O2+HO2<=>C2H5O2H+O2 1.750e+10 0.000 -3275.10
REV/ 3.763e+13 -0.792 33820.03/ 
C2H6+C2H5O2<=>C2H5+C2H5O2H 8.600e+00 3.760 17200.05
REV/ 8.957e+00 3.302 1837.95/ 
C2H5O2H<=>C2H5O+OH 6.310e+14 0.000 42299.95
REV/ 5.661e+08 1.033 -1705.07/ 
C2H5+O2<=>C2H4+HO2 7.561e+14 -1.010 4749.04
REV/ 8.802e+14 -0.962 18130.02/ 
DUPLICATE
C2H5+O2<=>C2H4+HO2 4.000e-01 3.880 13619.98
REV/ 4.656e-01 3.928 27000.00/ 
DUPLICATE
C2H5+O2<=>CH3CHO+OH 8.265e+02 2.410 5284.89
REV/ 2.247e+03 2.301 65969.89/ 
C2H5O2<=>CH3CHO+OH 2.520e+41 -10.200 43710.09
REV/ 1.502e+36 -9.345 69840.11/ 
C2H5O2<=>C2H4+HO2 1.815e+38 -8.450 37890.06
REV/ 4.632e+32 -7.438 16700.05/ 
C2H3O1X2<=>CH3CO 8.500e+14 0.000 14000.00
REV/ 1.002e+14 0.041 48710.09/ 
C2H3O1X2<=>CH2CHO 1.000e+14 0.000 14000.00
REV/ 1.245e+15 -0.375 44010.04/ 
CH3CHO<=>CH3+HCO 7.687e+20 -1.342 86950.05
REV/ 1.750e+13 0.000 0.00/ 
CH3CHO+H<=>CH3CO+H2 2.370e+13 0.000 3641.97
REV/ 1.639e+10 0.633 17599.90/ 
CH3CHO+O<=>CH3CO+OH 5.940e+12 0.000 1868.07
REV/ 2.133e+09 0.614 14409.89/ 
CH3CHO+OH<=>CH3CO+H2O 3.370e+12 0.000 -619.02
REV/ 2.472e+10 0.527 28229.92/ 
CH3CHO+O2<=>CH3CO+HO2 3.010e+13 0.000 39150.10
REV/ 1.092e+11 0.285 -1587.95/ 
CH3CHO+CH3<=>CH3CO+CH4 7.080e-04 4.580 1966.06
REV/ 4.468e-04 4.767 17460.09/ 
CH3CHO+HO2<=>CH3CO+H2O2 3.010e+12 0.000 11919.93
REV/ 1.205e+12 -0.062 9876.91/ 
CH3O2+CH3CHO<=>CH3O2H+CH3CO 3.010e+12 0.000 11919.93
REV/ 2.344e+13 -0.507 8282.03/ 
CH3CHO+OH<=>CH3+HOCHO 3.000e+15 -1.076 0.00
REV/ 2.371e+16 -1.277 23750.00/ 
CH3CHO+OH<=>CH2CHO+H2O 1.720e+05 2.400 815.01
REV/ 1.332e+05 2.511 24950.05/ 
CH3CO(+M)<=>CH3+CO(+M) 3.000e+12 0.000 16719.89
LOW/ 1.200e+15 0.000 12520.08/ 
TROE/ 1 1.00 10000000.00 10000000.00/ 
CH3CO+H<=>CH2CO+H2 2.000e+13 0.000 0.00
REV/ 1.037e+13 0.201 60559.99/ 
CH3CO+O<=>CH2CO+OH 2.000e+13 0.000 0.00
REV/ 5.381e+12 0.182 59140.06/ 
CH3CO+CH3<=>CH2CO+CH4 5.000e+13 0.000 0.00
REV/ 2.364e+16 -0.245 62099.90/ 
CH2CHO<=>CH2CO+H 4.071e+15 -0.342 50599.90
REV/ 5.000e+13 0.000 12299.95/ 
CH2CHO+O2<=>CH2O+CO+OH 8.950e+13 -0.600 10119.98
REV/ 0.000e+00 0.000 0.00/ 
CH2+CO(+M)<=>CH2CO(+M) 8.100e+11 0.000 0.00
H2/ 2.00/ H2O/ 6.00/ CO/ 1.50/ CO2/ 2.00/ CH4/ 2.00/ 
C2H6/ 3.00/ 
LOW/ 2.690e+33 -5.110 7094.89/ 
TROE/ 0.5907 275 1226 5185/ 
CH2CO+H<=>CH3+CO 1.100e+13 0.000 3400.10
REV/ 2.400e+12 0.000 40200.05/ 
CH2CO+H<=>HCCO+H2 2.000e+14 0.000 8000.00
REV/ 1.434e+11 0.470 4520.08/ 
CH2CO+O<=>CH2+CO2 1.750e+12 0.000 1349.90
REV/ 2.854e+09 0.809 49440.01/ 
CH2CO+O<=>HCCO+OH 1.000e+13 0.000 8000.00
REV/ 3.723e+09 0.452 3108.03/ 
CH2CO+OH<=>HCCO+H2O 1.000e+13 0.000 2000.00
REV/ 7.604e+10 0.365 13409.89/ 
CH2GSG+CH2CO<=>C2H4+CO 1.600e+14 0.000 0.00
REV/ 3.750e+14 0.217 103400.10/ 
HCCO+OH<=>H2+2CO 1.000e+14 0.000 0.00
REV/ 0.000e+00 0.000 0.00/ 
H+HCCO<=>CH2GSG+CO 1.100e+13 0.000 0.00
REV/ 4.061e+07 1.561 18539.91/ 
HCCO+O<=>H+2CO 8.000e+13 0.000 0.00
REV/ 0.000e+00 0.000 0.00/ 
HCCO+O2<=>OH+2CO 4.200e+10 0.000 849.90
REV/ 0.000e+00 0.000 0.00/ 
C2H3+H(+M)<=>C2H4(+M) 1.360e+14 0.173 659.89
H2/ 2.00/ H2O/ 6.00/ CO/ 1.50/ CO2/ 2.00/ CH4/ 2.00/ 
C2H6/ 3.00/ 
LOW/ 1.400e+30 -3.860 3320.03/ 
TROE/ 0.782 207.5 2663 6095/ 
C2H4(+M)<=>C2H2+H2(+M) 8.000e+12 0.440 88770.08
H2/ 2.00/ H2O/ 6.00/ CO/ 1.50/ CO2/ 2.00/ CH4/ 2.00/ 
C2H6/ 3.00/ 
LOW/ 1.580e+51 -9.300 97799.95/ 
TROE/ 0.735 180 1035 5417/ 
C2H4+H<=>C2H3+H2 5.070e+07 1.930 12950.05
REV/ 1.602e+04 2.436 5190.01/ 
C2H4+O<=>CH3+HCO 8.564e+06 1.880 183.08
REV/ 3.297e+02 2.602 26140.06/ 
C2H4+O<=>CH2CHO+H 4.986e+06 1.880 183.08
REV/ 1.541e+09 1.201 18780.11/ 
C2H4+OH<=>C2H3+H2O 1.800e+06 2.000 2500.00
REV/ 6.029e+03 2.400 9631.93/ 
C2H4+CH3<=>C2H3+CH4 6.620e+00 3.700 9500.00
REV/ 1.908e+00 3.760 3280.11/ 
C2H4+O2<=>C2H3+HO2 4.000e+13 0.000 58200.05
REV/ 2.000e+10 0.158 -4249.04/ 
C2H4+CH3O<=>C2H3+CH3OH 1.200e+11 0.000 6750.00
C2H4+CH3O2<=>C2H3+CH3O2H 8.590e+00 3.754 27131.93
C2H4+C2H5O2<=>C2H3+C2H5O2H 8.590e+00 3.754 27131.93
CH2GSG+CH3<=>C2H4+H 2.000e+13 0.000 0.00
REV/ 6.128e+19 -1.223 73049.95/ 
C2H2+H(+M)<=>C2H3(+M) 5.600e+12 0.000 2400.10
H2/ 2.00/ H2O/ 6.00/ CO/ 1.50/ CO2/ 2.00/ CH4/ 2.00/ 
C2H6/ 3.00/ 
LOW/ 3.800e+40 -7.270 7219.89/ 
TROE/ 0.751 98.5 1302 4167/ 
C2H3+O2<=>C2H2+HO2 2.120e-06 6.000 9483.99
REV/ 1.087e-05 5.905 24030.11/ 
C2H3+O2<=>CH2O+HCO 8.500e+28 -5.312 6500.00
REV/ 3.994e+27 -4.883 93450.05/ 
C2H3+O2<=>CH2CHO+O 5.500e+14 -0.611 5260.04
REV/ 3.000e+18 -1.386 16299.95/ 
CH3+C2H3<=>CH4+C2H2 3.920e+11 0.000 0.00
REV/ 3.497e+14 -0.193 70780.11/ 
C2H3+H<=>C2H2+H2 9.640e+13 0.000 0.00
REV/ 9.427e+13 0.253 69239.96/ 
C2H3+OH<=>C2H2+H2O 5.000e+12 0.000 0.00
REV/ 5.184e+13 0.147 84130.02/ 
C2H2+O2<=>HCCO+OH 2.000e+08 1.500 30099.90
REV/ 2.039e+06 1.541 32270.08/ 
C2H2+O<=>CH2+CO 6.940e+06 2.000 1900.10
REV/ 4.050e+01 3.198 48359.94/ 
C2H2+O<=>HCCO+H 1.350e+07 2.000 1900.10
REV/ 4.755e+07 1.650 20799.95/ 
C2H2+OH<=>CH2CO+H 3.236e+13 0.000 12000.00
REV/ 3.061e+17 -0.802 35789.91/ 
C2H2+OH<=>CH3+CO 4.830e-04 4.000 -2000.00
REV/ 3.495e-06 4.638 52119.98/ 
C2H3CHO<=>C2H3+HCO 2.003e+24 -2.135 103400.10
REV/ 1.810e+13 0.000 0.00/ 
C2H3CHO+H<=>C2H3CO+H2 1.340e+13 0.000 3299.95
REV/ 3.311e+10 0.613 22679.97/ 
C2H3CHO+O<=>C2H3CO+OH 5.940e+12 0.000 1868.07
REV/ 7.618e+09 0.594 19840.11/ 
C2H3CHO+OH<=>C2H3CO+H2O 9.240e+06 1.500 -962.00
REV/ 2.420e+05 2.007 33309.99/ 
C2H3CHO+O2<=>C2H3CO+HO2 1.005e+13 0.000 40700.05
REV/ 1.302e+11 0.265 5391.01/ 
C2H3CHO+HO2<=>C2H3CO+H2O2 3.010e+12 0.000 11919.93
REV/ 4.303e+12 -0.082 15299.95/ 
C2H3CHO+CH3<=>C2H3CO+CH4 2.608e+06 1.780 5911.09
REV/ 5.878e+06 1.947 26830.07/ 
C2H3CHO+C2H3<=>C2H3CO+C2H4 1.740e+12 0.000 8440.01
REV/ 1.000e+13 0.000 28000.00/ 
C2H3CHO+CH3O<=>C2H3CO+CH3OH 1.000e+12 0.000 3299.95
REV/ 5.304e+10 0.401 22909.89/ 
C2H3CHO+CH3O2<=>C2H3CO+CH3O2H 3.010e+12 0.000 11919.93
REV/ 8.371e+13 -0.527 13710.09/ 
C2H3CO<=>C2H3+CO 1.370e+21 -2.179 39409.89
REV/ 1.510e+11 0.000 4809.99/ 
NXC3H7<=>CH3+C2H4 9.240e+10 0.870 30500.00
NXC3H7<=>H+C3H6 4.140e+12 0.170 35599.90
NXC3H7+O2<=>C3H6+HO2 3.000e-19 0.000 3000.00
REV/ 2.000e-19 0.000 17500.00/ 
C3H6<=>C2H3+CH3 2.730e+62 -13.280 123200.05
REV/ 6.822e+53 -11.779 20549.95/ 
C3H6<=>C3H5XA+H 2.010e+61 -13.260 118500.00
REV/ 2.041e+61 -13.520 30609.94/ 
C3H6+O<=>C2H5+HCO 1.580e+07 1.760 -1216.06
REV/ 9.188e+01 2.725 23109.94/ 
C3H6+O<=>CH2CO+CH3+H 2.500e+07 1.760 76.00
REV/ 0.000e+00 0.000 0.00/ 
C3H6+O<=>C3H5XA+OH 5.240e+11 0.700 5884.08
REV/ 1.104e+11 0.697 20150.10/ 
C3H6+OH<=>C3H5XA+H2O 3.120e+06 2.000 -298.04
REV/ 1.343e+07 1.909 30270.08/ 
C3H6+HO2<=>C3H5XA+H2O2 2.700e+04 2.500 12340.11
REV/ 6.341e+06 1.820 12010.04/ 
C3H6+H<=>C3H5XA+H2 1.730e+05 2.500 2492.11
REV/ 7.023e+04 2.515 18169.93/ 
C3H6+H<=>C2H4+CH3 2.300e+13 0.000 2547.08
REV/ 7.272e+07 1.271 11200.05/ 
C3H6+O2<=>C3H5XA+HO2 4.000e+12 0.000 39900.10
REV/ 8.514e+12 -0.333 886.95/ 
C3H6+CH3<=>C3H5XA+CH4 2.210e+00 3.500 5674.95
REV/ 8.184e+02 3.070 22890.06/ 
C3H6+C2H5<=>C3H5XA+C2H6 1.000e+11 0.000 9799.95
REV/ 5.369e+05 1.330 16440.01/ 
C3H6+CH3O2<=>C3H5XA+CH3O2H 3.240e+11 0.000 14900.10
REV/ 2.000e+10 0.000 15000.00/ 
C3H6+C2H5O2<=>C3H5XA+C2H5O2H 3.240e+11 0.000 14900.10
REV/ 2.000e+10 0.000 15000.00/ 
C3H5XA<=>C2H2+CH3 2.397e+48 -9.900 82080.07
REV/ 2.610e+46 -9.820 36950.05/ 
C3H5XA+HO2<=>C3H5O+OH 7.000e+12 0.000 -1000.00
REV/ 1.605e+12 0.060 11659.89/ 
C3H5XA+CH3O2<=>C3H5O+CH3O 7.000e+12 0.000 -1000.00
REV/ 1.990e+15 -0.740 17020.08/ 
C3H5XA+C2H5<=>C2H4+C3H6 4.000e+11 0.000 0.00
REV/ 6.937e+16 -1.330 52799.95/ 
C3H5XA+O2<=>CH2CHO+CH2O 7.140e+15 -1.210 21049.95
REV/ 4.944e+16 -1.400 88619.98/ 
C3H5XA+O2<=>C2H3CHO+OH 2.470e+13 -0.440 23020.08
REV/ 1.989e+13 -0.609 75140.06/ 
C3H5XA+O2<=>C2H2+CH2O+OH 9.720e+29 -5.710 21450.05
REV/ 0.000e+00 0.000 0.00/ 
NXC3H7O2<=>NXC3H7+O2 2.400e+20 -1.616 35960.09
REV/ 4.520e+12 0.000 0.00/ 
NXC3H7O2<=>C3H6OOH1X2 6.000e+11 0.000 26849.90
REV/ 1.117e+08 0.583 11719.89/ 
C3H6OOH1X2<=>C3H6+HO2 7.834e+15 -1.300 15950.05
REV/ 1.000e+11 0.000 11000.00/ 
C3H6OOH1X2<=>C2H4+CH2O+OH 1.310e+33 -7.010 48119.98
REV/ 0.000e+00 0.000 0.00/ 
C3H5O<=>C2H3CHO+H 1.000e+14 0.000 29099.90
REV/ 1.676e+14 -0.156 19690.01/ 
C3H5O<=>C2H3+CH2O 1.464e+20 -1.968 35090.11
REV/ 1.500e+11 0.000 10599.90/ 
C3H5O+O2<=>C2H3CHO+HO2 1.000e+12 0.000 6000.00
REV/ 1.288e+11 0.000 32000.00/ 
NXC3H7O2<=>C3H6+HO2 5.044e+38 -8.112 40489.96
REV/ 1.198e+30 -6.229 20419.93/ 
PXC4H9<=>C2H5+C2H4 3.504e+12 0.463 29469.89
REV/ 1.320e+04 2.480 6130.02/ 
SXC4H9<=>C3H6+CH3 4.803e+10 1.044 30349.90
REV/ 1.760e+04 2.480 6130.02/ 
PXC4H9<=>C4H8X1+H 2.622e+12 0.253 35700.05
REV/ 2.500e+11 0.510 2619.98/ 
SXC4H9<=>C4H8X2+H 2.844e+11 0.337 35520.08
REV/ 2.500e+11 0.510 2619.98/ 
SXC4H9<=>C4H8X1+H 3.027e+11 0.591 36820.03
REV/ 4.240e+11 0.510 1229.92/ 
PXC4H9+O2<=>C4H8X1+HO2 2.000e-18 0.000 5000.00
REV/ 2.000e-19 0.000 17500.00/ 
SXC4H9+O2<=>C4H8X1+HO2 2.000e-18 0.000 5000.00
REV/ 2.000e-19 0.000 17500.00/ 
SXC4H9+O2<=>C4H8X2+HO2 2.000e-18 0.000 5000.00
REV/ 2.000e-19 0.000 17500.00/ 
C4H8X1<=>C3H5XA+CH3 5.081e+19 -1.256 76510.04
REV/ 1.350e+13 0.000 0.00/ 
C4H8X1<=>C2H3+C2H5 2.882e+23 -1.990 101599.90
REV/ 9.000e+12 0.000 0.00/ 
C4H8X1<=>H+C4H71X3 3.724e+14 -0.111 85200.05
REV/ 5.000e+13 0.000 0.00/ 
C4H8X1+O2<=>C4H71X3+HO2 2.000e+13 0.000 37190.01
REV/ 4.653e+12 0.070 -168.02/ 
C4H8X1+H<=>C4H71X3+H2 3.376e+05 2.360 206.98
REV/ 4.323e+06 2.100 20330.07/ 
C4H8X1+H<=>C4H71X4+H2 6.651e+05 2.540 6755.98
REV/ 3.045e+04 2.540 11030.11/ 
C4H8X1+OH<=>C4H71X3+H2O 2.764e+04 2.640 -1918.98
REV/ 1.532e+06 2.380 33359.94/ 
C4H8X1+OH<=>C4H71X4+H2O 5.270e+09 0.970 1586.04
REV/ 1.044e+09 0.970 21010.04/ 
C4H8X1+CH3<=>C4H71X3+CH4 3.690e+00 3.310 4001.91
REV/ 1.234e+03 3.050 24609.94/ 
C4H8X1+CH3<=>C4H71X4+CH4 4.520e-01 3.650 7153.92
REV/ 5.405e-01 3.650 11909.89/ 
C4H8X1+HO2<=>C4H71X3+H2O2 4.820e+03 2.550 10530.11
REV/ 1.586e+06 1.960 14349.90/ 
C4H8X1+HO2<=>C4H71X4+H2O2 2.380e+03 2.550 16489.96
REV/ 2.800e+03 2.220 4460.09/ 
C4H8X1+CH3O2<=>C4H71X3+CH3O2H 4.820e+03 2.550 10530.11
REV/ 3.303e+06 1.790 11330.07/ 
C4H8X1+CH3O2<=>C4H71X4+CH3O2H 2.380e+03 2.550 16489.96
REV/ 5.831e+03 2.040 1440.01/ 
C4H8X1+CH3O<=>C4H71X3+CH3OH 4.000e+01 2.900 8608.99
REV/ 2.470e+02 2.670 27000.00/ 
C4H8X1+CH3O<=>C4H71X4+CH3OH 2.170e+11 0.000 6457.93
REV/ 4.789e+09 0.020 9001.91/ 
C4H8X1+C3H5XA<=>C4H71X3+C3H6 7.900e+10 0.000 12400.10
REV/ 1.000e+11 0.000 17500.00/ 
C4H8X1+C4H6<=>2C4H71X3 2.350e+12 0.000 46719.89
REV/ 1.600e+12 0.000 0.00/ 
C4H8X1+C2H5O2<=>C4H71X3+C2H5O2H 1.400e+12 0.000 14900.10
REV/ 3.160e+11 0.000 13000.00/ 
C4H8X2<=>H+C4H71X3 2.337e+14 0.143 87890.06
REV/ 5.000e+13 0.000 0.00/ 
C4H8X2+O2<=>C4H71X3+HO2 4.000e+13 0.000 39390.06
REV/ 1.350e+13 -0.180 -924.00/ 
C4H8X2+H<=>C4H71X3+H2 3.460e+05 2.500 2492.11
REV/ 6.428e+06 1.990 19659.89/ 
C4H8X2+OH<=>C4H71X3+H2O 6.240e+06 2.000 -298.04
REV/ 5.019e+08 1.490 32020.08/ 
C4H8X2+CH3<=>C4H71X3+CH4 4.420e+00 3.500 5674.95
REV/ 2.145e+03 2.990 23320.03/ 
C4H8X2+HO2<=>C4H71X3+H2O2 1.928e+04 2.600 13909.89
REV/ 9.205e+06 1.770 14770.08/ 
C4H8X2+CH3O2<=>C4H71X3+CH3O2H 1.928e+04 2.600 13909.89
REV/ 1.917e+07 1.590 11750.00/ 
C4H8X2+CH3O<=>C4H71X3+CH3OH 1.800e+01 2.950 11989.96
REV/ 1.612e+02 2.470 27419.93/ 
C4H8X2+C2H5O2<=>C4H71X3+C2H5O2H 3.200e+12 0.000 14900.10
REV/ 1.585e+11 0.000 14700.05/ 
C4H71X4<=>C2H4+C2H3 8.766e+12 -0.220 36289.91
REV/ 2.000e+11 0.000 7799.95/ 
C4H71X4<=>C4H6+H 3.000e+13 0.000 35000.00
C4H71X3<=>C4H6+H 1.200e+14 0.000 49299.95
REV/ 4.000e+13 0.000 1299.95/ 
C4H71X3+C2H5<=>C4H8X1+C2H4 2.590e+12 0.000 -130.98
REV/ 1.149e+13 0.060 49440.01/ 
C4H71X3+CH3O<=>C4H8X1+CH2O 2.410e+13 0.000 0.00
REV/ 2.482e+12 0.280 66330.07/ 
C4H71X3+O<=>C2H3CHO+CH3 6.030e+13 0.000 0.00
REV/ 3.385e+15 -0.780 81630.02/ 
C4H71X3+HO2<=>C4H7O+OH 9.640e+12 0.000 0.00
REV/ 7.290e+15 -1.090 15530.11/ 
C4H71X3+CH3O2<=>C4H7O+CH3O 9.640e+12 0.000 0.00
REV/ 7.120e+17 -1.670 20289.91/ 
C3H5XA+C4H71X3<=>C3H6+C4H6 6.310e+12 0.000 0.00
REV/ 1.000e+10 0.000 50000.00/ 
C4H71X3+O2<=>C4H6+HO2 1.000e+09 0.000 0.00
REV/ 1.000e+11 0.000 17000.00/ 
H+C4H71X3<=>C4H6+H2 3.160e+13 0.000 0.00
REV/ 1.066e+13 0.000 56809.99/ 
C2H5+C4H71X3<=>C4H6+C2H6 3.980e+12 0.000 0.00
REV/ 3.211e+12 0.000 49840.11/ 
C2H3+C4H71X3<=>C2H4+C4H6 3.980e+12 0.000 0.00
REV/ 1.157e+13 0.000 57710.09/ 
C4H71X3+C2H5O2<=>C4H7O+C2H5O 3.800e+12 0.000 -1200.05
REV/ 2.000e+10 0.000 0.00/ 
C4H7O<=>CH3CHO+C2H3 7.940e+14 0.000 19000.00
REV/ 1.000e+10 0.000 20000.00/ 
C4H7O<=>C2H3CHO+CH3 7.940e+14 0.000 19000.00
REV/ 1.000e+10 0.000 20000.00/ 
C4H6<=>2C2H3 4.027e+19 -1.000 98150.10
REV/ 1.260e+13 0.000 0.00/ 
C4H6+OH<=>C2H5+CH2CO 1.000e+12 0.000 0.00
REV/ 3.730e+12 0.000 30020.08/ 
C4H6+OH<=>CH2O+C3H5XA 1.000e+12 0.000 0.00
REV/ 3.501e+06 0.000 71059.99/ 
C4H6+OH<=>C2H3+CH3CHO 1.000e+12 0.000 0.00
REV/ 5.437e+11 0.000 18549.95/ 
C4H6+O<=>C2H4+CH2CO 1.000e+12 0.000 0.00
REV/ 6.377e+11 0.000 94340.11/ 
C2H3+C2H4<=>C4H6+H 5.000e+11 0.000 7299.95
REV/ 1.000e+13 0.000 4700.05/ 
C4H8O1X3+OH<=>CH2O+C3H5XA+H2O 5.000e+12 0.000 0.00
REV/ 0.000e+00 0.000 0.00/ 
C4H8O1X3+H<=>CH2O+C3H5XA+H2 5.000e+12 0.000 0.00
REV/ 0.000e+00 0.000 0.00/ 
C4H8O1X3+O<=>CH2O+C3H5XA+OH 5.000e+12 0.000 0.00
REV/ 0.000e+00 0.000 0.00/ 
C4H8O1X3+HO2<=>CH2O+C3H5XA+H2O2 1.000e+13 0.000 15000.00
REV/ 0.000e+00 0.000 0.00/ 
C4H8O1X3+CH3O2<=>CH2O+C3H5XA+CH3O2H 1.000e+13 0.000 19000.00
REV/ 0.000e+00 0.000 0.00/ 
C4H8O1X3+CH3<=>CH2O+C3H5XA+CH4 2.000e+11 0.000 10000.00
REV/ 0.000e+00 0.000 0.00/ 
PXC4H9O2<=>PXC4H9+O2 2.849e+20 -1.642 35929.97
REV/ 4.520e+12 0.000 0.00/ 
PXC4H9O2<=>C4H8OOH1X3 2.500e+10 0.000 20849.90
REV/ 3.231e+09 -0.136 7870.94/ 
PXC4H9O2<=>C4H8X1+HO2 5.044e+38 -8.110 40489.96
REV/ 1.599e+30 -6.283 20349.90/ 
C4H8OOH1X3<=>C4H8O1X3+OH 7.500e+10 0.000 15250.00
REV/ 0.000e+00 0.000 0.00/ 
C4H8OOH1X3<=>OH+CH2O+C3H6 6.635e+13 -0.160 29900.10
REV/ 0.000e+00 0.000 0.00/ 
C4H8OOH1X3O2<=>C4H8OOH1X3+O2 5.601e+22 -2.234 37960.09
REV/ 7.540e+12 0.000 0.00/ 
C4H8OOH1X3O2<=>NC4KET13+OH 2.500e+10 0.000 21000.00
REV/ 1.435e+03 1.486 44739.96/ 
NC4KET13<=>CH3CHO+CH2CHO+OH 1.050e+16 0.000 41599.90
REV/ 0.000e+00 0.000 0.00/ 
C2H5COCH2<=>CH2CO+C2H5 1.000e+14 0.000 35000.00
REV/ 1.000e+11 0.000 0.00/ 
C5H11X1<=>C2H4+NXC3H7 3.205e+12 0.451 29429.97
REV/ 8.800e+03 2.480 6130.02/ 
C5H11X1<=>H+C5H10X1 3.354e+11 0.608 35640.06
REV/ 2.500e+11 0.510 2619.98/ 
C5H10X1<=>C2H5+C3H5XA 9.864e+21 -2.086 75059.99
REV/ 4.000e+12 0.000 -596.08/ 
C5H10X1+H<=>C5H91X3+H2 3.376e+05 2.360 206.98
REV/ 3.096e+05 2.530 20320.03/ 
C5H10X1+H<=>C5H91X5+H2 6.650e+05 2.540 6755.98
REV/ 2.193e+03 2.960 11020.08/ 
C5H10X1+O<=>C5H91X3+OH 6.600e+05 2.430 1210.09
REV/ 2.658e+05 2.600 19229.92/ 
C5H10X1+O<=>C5H91X5+OH 9.800e+05 2.430 4750.00
REV/ 1.419e+03 2.850 6914.91/ 
C5H10X1+OH<=>C5H91X3+H2O 2.764e+04 2.640 -1918.98
REV/ 1.097e+05 2.810 33349.90/ 
C5H10X1+OH<=>C5H91X5+H2O 5.270e+09 0.970 1586.04
REV/ 7.524e+07 1.390 21000.00/ 
C5H10X1+CH3<=>C5H91X3+CH4 3.690e+00 3.310 4001.91
REV/ 8.840e+01 3.480 24590.11/ 
C5H10X1+CH3<=>C5H91X5+CH4 4.521e-01 3.650 7153.92
REV/ 3.895e-02 4.070 11890.06/ 
C5H10X1+O2<=>C5H91X3+HO2 2.200e+12 0.000 37219.89
REV/ 3.665e+10 0.490 -152.01/ 
C5H10X1+O2<=>C5H91X5+HO2 3.000e+13 0.000 52289.91
REV/ 1.797e+09 0.750 -931.88/ 
C5H10X1+HO2<=>C5H91X3+H2O2 4.820e+03 2.550 10530.11
REV/ 1.136e+05 2.390 14330.07/ 
C5H10X1+HO2<=>C5H91X5+H2O2 2.380e+04 2.550 16489.96
REV/ 2.017e+03 2.640 4445.98/ 
C5H10X1+CH3O2<=>C5H91X3+CH3O2H 4.820e+03 2.550 10530.11
REV/ 2.366e+05 2.210 11309.99/ 
C5H10X1+CH3O2<=>C5H91X5+CH3O2H 2.380e+04 2.550 16489.96
REV/ 4.200e+03 2.470 1425.91/ 
C5H10X1+CH3O<=>C5H91X3+CH3OH 4.000e+01 2.900 8608.99
REV/ 1.769e+01 3.090 26989.96/ 
C5H10X1+CH3O<=>C5H91X5+CH3OH 2.170e+11 0.000 6457.93
REV/ 3.450e+08 0.450 8988.05/ 
C5H91X3<=>C4H6+CH3 7.554e+14 -0.520 38520.08
REV/ 1.000e+11 0.000 7799.95/ 
C5H91X5<=>C2H4+C3H5XA 7.157e+16 -1.420 17750.00
REV/ 1.000e+11 0.000 7799.95/ 
C5H11X1+O2<=>C5H10X1+HO2 8.370e-01 3.590 11960.09
REV/ 1.307e+00 3.420 27809.99/ 
C5H11O2X1<=>C5H11X1+O2 2.338e+20 -1.620 35830.07
REV/ 4.520e+12 0.000 0.00/ 
C5H11O2X1<=>C5H10OOH1X4 3.125e+09 0.000 18650.10
REV/ 3.255e+08 -0.106 6049.95/ 
C5H11O2X1<=>C5H10X1+HO2 5.044e+38 -8.110 40489.96
REV/ 1.523e+31 -6.660 20510.04/ 
C5H10OOH1X4<=>C5H10O1X4+OH 9.375e+09 0.000 6000.00
REV/ 0.000e+00 0.000 0.00/ 
C5H10O1X4+OH<=>CH2CHO+C3H6+H2O 2.500e+12 0.000 0.00
REV/ 0.000e+00 0.000 0.00/ 
C5H10O1X4+HO2<=>CH2CHO+C3H6+H2O2 5.000e+12 0.000 17700.05
REV/ 0.000e+00 0.000 0.00/ 
C6H13X1+O2<=>C6H12X1+HO2 3.000e-19 0.000 3000.00
REV/ 2.000e-19 0.000 17500.00/ 
C6H13X1<=>C2H4+PXC4H9 6.391e+19 -1.970 30640.06
REV/ 3.300e+11 0.000 7200.05/ 
C6H13X1<=>C6H12X1+H 9.621e+13 -0.260 36000.00
REV/ 1.000e+13 0.000 2900.10/ 
C6H12X1<=>NXC3H7+C3H5XA 1.000e+16 0.000 71000.00
REV/ 1.000e+13 0.000 0.00/ 
C6H12X1+OH<=>C5H11X1+CH2O 1.000e+11 0.000 -4000.00
REV/ 0.000e+00 0.000 0.00/ 
C6H12X1+O<=>C5H11X1+HCO 1.000e+11 0.000 -1049.95
REV/ 0.000e+00 0.000 0.00/ 
C6H12X1+H<=>C6H111X3+H2 3.376e+05 2.360 206.98
REV/ 4.378e+06 2.100 20330.07/ 
C6H12X1+H<=>C6H111X6+H2 6.650e+05 2.540 6755.98
REV/ 3.120e+04 2.540 11030.11/ 
C6H12X1+OH<=>C6H111X3+H2O 2.764e+04 2.640 -1918.98
REV/ 1.552e+06 2.380 33359.94/ 
C6H12X1+OH<=>C6H111X6+H2O 5.270e+09 0.970 1586.04
REV/ 1.071e+09 0.970 21010.04/ 
C6H12X1+CH3<=>C6H111X3+CH4 3.690e+00 3.310 4001.91
REV/ 1.250e+03 3.050 24599.90/ 
C6H12X1+CH3<=>C6H111X6+CH4 4.521e-01 3.650 7153.92
REV/ 5.541e-01 3.650 11900.10/ 
C6H12X1+HO2<=>C6H111X3+H2O2 9.640e+03 2.550 10530.11
C6H12X1+HO2<=>C6H111X6+H2O2 2.380e+04 2.550 16489.96
C6H12X1+CH3O2<=>C6H111X3+CH3O2H 4.820e+03 2.550 10530.11
REV/ 3.345e+06 1.790 11320.03/ 
C6H12X1+CH3O2<=>C6H111X6+CH3O2H 2.380e+04 2.550 16489.96
REV/ 5.976e+04 2.040 1435.95/ 
C6H12X1+CH3O<=>C6H111X3+CH3OH 4.000e+01 2.900 8608.99
REV/ 2.501e+02 2.670 27000.00/ 
C6H12X1+CH3O<=>C6H111X6+CH3OH 2.170e+11 0.000 6457.93
REV/ 4.908e+09 0.020 8998.09/ 
C6H111X6<=>C6H111X3 1.113e+12 0.000 31700.05